src/examples/case14_twoarea/two_area_08pulim/results/res_branch_2.csv
branch,from_bus,to_bus,X,B,G,Bfr,Bto,p_from,p_to,q_from,q_to,p_loss,q_loss,s_from,s_to,rate_a,ang_deg,angmin,angmax
7,4,5,0.07018333333333335,-13.750861129582134,2.615635185180549,0.0,0.0,-0.2280662083036654,0.22881441539336994,-0.0891578676704238,0.09309132591605276,0.0007482070897045501,0.003933458245628962,0.24487409160127105,0.24702637845505165,0.8,-0.7865515155877965,-60.0001403060998,60.0001403060998
4,2,4,0.2938666666666667,-3.274849999726149,0.6475778135801491,0.028333333333333335,0.028333333333333335,0.3647183062387601,-0.35752596351386173,-0.062117099286572976,0.03749864738161292,0.007192342724898382,-0.024618451904960058,0.36997023789684486,0.3594870834146419,0.8,5.812841088968353,-60.0001403060998,60.0001403060998
2,1,5,0.37173333333333336,-2.634446441553089,0.3829065851070123,0.041,0.041,0.47005772490301706,-0.45942071281512253,-0.030209110910813068,0.012684923995264734,0.010637012087894526,-0.017524186915548336,0.47102744625236254,0.4595957992196197,0.8,9.044755680574843,-60.0001403060998,60.0001403060998
3,2,3,0.32995,-2.9705137433791546,0.423047252012082,0.0365,0.0365,0.311555853245137,-0.3073402625736315,-0.03143614612356124,-0.017101153565324993,0.004215590671505509,-0.04853729968888623,0.3131377986995617,0.30781566960129497,0.8,5.491030153788595,-60.0001403060998,60.0001403060998
5,2,5,0.28980000000000006,-3.32235273589815,0.6528916090731525,0.028833333333333336,0.028833333333333336,0.3167813385159717,-0.3113239551111021,-0.08955200278122621,0.054711202296360166,0.005457383404869565,-0.03484080048486605,0.32919595628455006,0.31609479698775933,0.8,5.026289573380556,-60.0001403060998,60.0001403060998
6,3,4,0.28505,-3.324436966625986,0.7815138436541214,0.010666666666666668,0.010666666666666668,0.015263403578221698,-0.01521140168282128,-0.03553704680787712,0.013059982183831951,5.200189540041818e-5,-0.02247706462404517,0.03867626125437826,0.020048687632813925,0.8,0.3218109351797585,-60.0001403060998,60.0001403060998
1,1,2,0.09861666666666669,-9.763222778777191,1.918653954227162,0.044000000000000004,0.044000000000000004,0.799429434168712,-0.7882969534496684,0.030209100963518264,-0.07063810922617698,0.011132480719043603,-0.04042900826265872,0.800000006247707,0.7914555131484511,0.8,4.018466107194286,-60.0001403060998,60.0001403060998
